64
Lattice="7.1438500 0.0000000 0.0000000 0.0000000 7.1438500 0.0000000 0.0000000 0.0000000 7.1438500" Energy=-9902.055910 Properties=species:S:1:pos:R:3:force:R:3
C	    0.019046	    0.010537	    0.001479	-0.45980 0.01096 0.26553
C	    0.019517	    1.788341	    1.788370	-0.48880 0.61172 0.30275
C	    1.786584	    0.007601	    1.805594	0.41194 0.22137 -0.68006
C	    1.795842	    1.802222	    0.009937	0.11280 -0.24181 -0.12961
C	    2.696196	    0.897860	    2.679394	-0.43906 0.15733 0.43488
C	    0.897839	    0.910669	    0.894060	0.32074 -0.34087 0.20058
C	    0.909669	    2.693196	    2.681758	-0.14733 0.00426 0.25814
C	    2.695217	    2.686509	    0.910848	-0.31100 0.20581 -0.38123
C	    3.584505	    0.004979	    0.009316	-0.14871 0.05109 0.10354
C	    3.571968	    1.791020	    1.797178	0.56115 0.18569 -0.21237
C	    5.365481	    0.015345	    1.795850	0.04104 -0.14474 0.07575
C	    5.375976	    1.786963	    0.001357	-0.47855 0.62196 0.38248
C	    6.264478	    0.906690	    2.696896	-0.04559 -0.26000 -0.33723
C	    4.472479	    0.905390	    0.898753	0.06363 -0.10605 0.11296
C	    4.477544	    2.693874	    2.684323	-0.22025 -0.44983 0.22934
C	    6.255734	    2.698489	    0.904869	0.23615 -0.63290 -0.13879
C	    0.011430	    3.579605	    0.009516	-0.18338 0.07715 -0.03231
C	    0.019631	    5.363088	    1.793328	-0.36009 0.11574 -0.05146
C	    1.802958	    3.589477	    1.799071	-0.12632 -0.30682 -0.19995
C	    1.791635	    5.374011	    0.018767	0.07714 -0.50882 -0.34539
C	    2.692596	    4.474129	    2.691353	0.06293 0.05804 -0.12973
C	    0.900147	    4.466728	    0.898639	0.23332 0.32255 0.17257
C	    0.912720	    6.262156	    2.683044	-0.41359 -0.18292 0.26860
C	    2.680623	    6.254619	    0.901761	0.31758 0.21897 0.31721
C	    3.576933	    3.582562	    0.000543	0.24494 -0.01777 0.48033
C	    3.588149	    5.364988	    1.803486	-0.28968 0.03884 -0.42319
C	    5.359573	    3.578219	    1.798164	0.44293 0.26688 -0.23153
C	    5.368510	    5.372425	    0.004072	0.23252 -0.05528 0.22666
C	    6.266878	    4.475222	    2.689345	-0.09745 0.05966 0.02147
C	    4.479680	    4.480716	    0.894060	-0.24762 -0.16942 0.25953
C	    4.467742	    6.254962	    2.696189	0.52638 0.22307 -0.45992
C	    6.259627	    6.264435	    0.901840	0.24738 -0.06277 0.03034
C	    0.007008	    0.001050	    3.582884	0.21876 0.38696 0.01426
C	    0.009573	    1.801986	    5.369225	-0.12153 -0.23479 -0.12076
C	    1.797707	    0.013573	    5.371497	0.11446 -0.09096 -0.32964
C	    1.788877	    1.804879	    3.579355	0.50521 -0.30113 0.04896
C	    2.697053	    0.894810	    6.252433	-0.22054 0.28072 0.51858
C	    0.905783	    0.911148	    4.474036	-0.22448 -0.29088 0.02383
C	    0.896239	    2.689145	    6.251826	0.32231 0.02110 0.41225
C	    2.690260	    2.691245	    4.479673	0.02472 -0.23982 -0.20895
C	    3.590556	    0.006322	    3.572682	-0.25785 0.20343 0.37258
C	    3.587584	    1.787513	    5.376976	-0.17705 0.38387 -0.61324
C	    5.371604	    0.017010	    5.372732	-0.19777 -0.28808 -0.30445
C	    5.367210	    1.788856	    3.590678	0.15157 0.53680 -0.35152
C	    6.256077	    0.900389	    6.261134	0.47969 0.14470 -0.15816
C	    4.476294	    0.905426	    4.469721	0.03067 -0.16675 0.28333
C	    4.469878	    2.698897	    6.256069	0.37544 -0.49018 0.15631
C	    6.257255	    2.689288	    4.480087	0.20208 0.17084 -0.06586
C	    0.018217	    3.591735	    3.591792	-0.35144 -0.45995 -0.49312
C	    0.017702	    5.362417	    5.365024	-0.30706 0.31377 0.09962
C	    1.801858	    3.579883	    5.372947	-0.33433 0.13434 -0.29362
C	    1.804479	    5.371818	    3.574125	-0.09357 -0.02251 0.30931
C	    2.682523	    4.466199	    6.262813	0.07488 0.49435 0.03040
C	    0.903333	    4.479858	    4.473515	0.38489 -0.03976 0.06497
C	    0.905519	    6.259277	    6.265485	0.02170 0.08848 -0.28666
C	    2.697211	    6.267092	    4.470128	-0.25371 -0.19801 0.12674
C	    3.585205	    3.579519	    3.573818	-0.10416 -0.03423 0.46213
C	    3.579712	    5.364267	    5.366910	0.09979 0.14275 0.08327
C	    5.372690	    3.591649	    5.370689	-0.35286 -0.39172 -0.15224
C	    5.374240	    5.372254	    3.574568	-0.40334 -0.26960 0.37520
C	    6.262878	    4.473172	    6.259927	0.09853 0.22271 0.00347
C	    4.466606	    4.466878	    4.477951	0.49522 0.42550 -0.25951
C	    4.483352	    6.265564	    6.267407	-0.34425 -0.25462 -0.37266
C	    6.251940	    6.263613	    4.471064	0.46868 -0.14842 0.23525
18
Lattice="7.2312545 -4.1749667 0.0000000 -0.0000000 8.3499334 0.0000000 0.0000000 0.0000000 10.0025668" Energy=-3470.529061 Virial="0.032347 -0.000000 0.000000 -0.000000 0.032347 0.000000 0.000000 0.000000 -0.029558" Properties=species:S:1:pos:R:3:force:R:3
C	   18.034676	    9.087241	   -5.001283	0.01377 0.02815 -0.00000
C	  -16.887120	   11.074867	   -5.001283	-0.03127 -0.00216 0.00000
C	   -1.147557	  -20.162108	   -5.001283	0.01750 -0.02600 -0.00000
C	  -18.034676	   -9.087241	   -5.001283	-0.01377 -0.02815 0.00000
C	   16.887120	  -11.074867	   -5.001283	0.03127 0.00216 -0.00000
C	    1.147557	   20.162108	   -5.001283	-0.01750 0.02600 0.00000
C	   16.887120	   11.074867	    5.001283	0.03127 -0.00216 -0.00000
C	    1.147557	  -20.162108	    5.001283	-0.01750 -0.02600 0.00000
C	  -18.034676	    9.087241	    5.001283	-0.01377 0.02815 -0.00000
C	  -16.887120	  -11.074867	    5.001283	-0.03127 0.00216 0.00000
C	   -1.147557	   20.162108	    5.001283	0.01750 0.02600 -0.00000
C	   18.034676	   -9.087241	    5.001283	0.01377 -0.02815 0.00000
N	   16.853726	    9.730503	   -5.001283	0.01883 0.01087 -0.00000
N	  -16.853726	    9.730503	   -5.001283	-0.01883 0.01087 0.00000
N	    0.000000	  -19.461006	   -5.001283	0.00000 -0.02175 0.00000
N	  -16.853726	   -9.730503	   -5.001283	-0.01883 -0.01087 0.00000
N	   16.853726	   -9.730503	   -5.001283	0.01883 -0.01087 -0.00000
N	    0.000000	   19.461006	   -5.001283	0.00000 0.02175 -0.00000
18
Lattice="7.2238773 -4.1707075 0.0000000 0.0000000 8.3414150 0.0000000 0.0000000 0.0000000 10.0019049" Energy=-3470.518232 Properties=species:S:1:pos:R:3:force:R:3
C	   18.014472	    9.075843	   -5.000952	0.11871 0.20013 0.00000
C	  -16.867147	   11.063069	   -5.000952	-0.23267 0.00274 0.00000
C	   -1.147325	  -20.138912	   -5.000952	0.11396 -0.20287 0.00000
C	  -18.014472	   -9.075843	   -5.000952	-0.11871 -0.20013 0.00000
C	   16.867147	  -11.063069	   -5.000952	0.23267 -0.00274 -0.00000
C	    1.147325	   20.138912	   -5.000952	-0.11396 0.20287 -0.00000
C	   16.867147	   11.063069	    5.000952	0.23267 0.00274 0.00000
C	    1.147325	  -20.138912	    5.000952	-0.11396 -0.20287 0.00000
C	  -18.014472	    9.075843	    5.000952	-0.11871 0.20013 -0.00000
C	  -16.867147	  -11.063069	    5.000952	-0.23267 -0.00274 0.00000
C	   -1.147325	   20.138912	    5.000952	0.11396 0.20287 -0.00000
C	   18.014472	   -9.075843	    5.000952	0.11871 -0.20013 0.00000
N	   16.833931	    9.719075	   -5.000952	0.01146 0.00662 -0.00000
N	  -16.833931	    9.719075	   -5.000952	-0.01146 0.00662 0.00000
N	    0.000000	  -19.438150	   -5.000952	0.00000 -0.01324 0.00000
N	  -16.833931	   -9.719075	   -5.000952	-0.01146 -0.00662 0.00000
N	   16.833931	   -9.719075	   -5.000952	0.01146 -0.00662 -0.00000
N	    0.000000	   19.438150	   -5.000952	0.00000 0.01324 -0.00000
